Version 4
SHEET 1 880 680
WIRE -16 128 -96 128
WIRE 96 128 64 128
WIRE 240 128 176 128
WIRE 416 128 240 128
WIRE -96 160 -96 128
WIRE 240 176 240 128
WIRE -96 256 -96 240
WIRE 80 256 -96 256
WIRE 240 256 240 240
WIRE 240 256 80 256
WIRE 80 272 80 256
FLAG 80 272 0
FLAG 416 128 capacitor_voltage
SYMBOL ind 80 144 R270
WINDOW 0 32 56 VTop 2
WINDOW 3 5 56 VBottom 2
SYMATTR InstName L1
SYMATTR Value 470µ
SYMBOL cap 224 176 R0
SYMATTR InstName C1
SYMATTR Value 20µ
SYMBOL res 80 112 R90
WINDOW 0 0 56 VBottom 2
WINDOW 3 32 56 VTop 2
SYMATTR InstName R1
SYMATTR Value 1
SYMBOL voltage -96 144 R0
WINDOW 123 0 0 Left 0
WINDOW 39 0 0 Left 0
SYMATTR InstName V1
SYMATTR Value 325
TEXT -128 296 Left 2 !.tran 10m startup
